7
Lattice="13.43885 0.0 0.0 0.0 12.81569 0.0 0.0 0.0 17.56102"
HE	1.5229	-2.68707	16.27871	# He
NE	4.16945	-2.63225	17.3577	# Ne
ALG1	3.2072	-1.77655	10.8392	# AlF4 Al
FGP1	4.96175	-2.00171	10.50132	# AlF4 F
FGP1	2.87731	-2.14341	12.57136	# AlF4 F
FGP1	2.74191	-0.07271	10.48714	# AlF4 F
FGP1	2.24766	-2.8884	9.79668	# AlF4 F
